
!-   ===========  ALL OBJECTS IN CLASS: VERSION ===========

Version,
    7.0;                     !- Version Identifier


!-   ===========  ALL OBJECTS IN CLASS: SIMULATIONCONTROL ===========

SimulationControl,
    No,                      !- Do Zone Sizing Calculation
    No,                      !- Do System Sizing Calculation
    No,                      !- Do Plant Sizing Calculation
    No,                      !- Run Simulation for Sizing Periods
    Yes;                     !- Run Simulation for Weather File Run Periods


!-   ===========  ALL OBJECTS IN CLASS: BUILDING ===========

Building,
    ZEBRAlliance House number 1 SIP House,  !- Name
    -37,                     !- North Axis {deg}
    Suburbs,                 !- Terrain
    0.04,                    !- Loads Convergence Tolerance Value
    0.4,                     !- Temperature Convergence Tolerance Value {deltaC}
    FullExteriorWithReflections,  !- Solar Distribution
    25,                      !- Maximum Number of Warmup Days
    6;                       !- Minimum Number of Warmup Days


!-   ===========  ALL OBJECTS IN CLASS: SHADOWCALCULATION ===========

ShadowCalculation,
    20,                      !- Calculation Frequency
    15000;                   !- Maximum Figures in Shadow Overlap Calculations


!-   ===========  ALL OBJECTS IN CLASS: SURFACECONVECTIONALGORITHM:INSIDE ===========

SurfaceConvectionAlgorithm:Inside,
    CeilingDiffuser;         !- Algorithm


!-   ===========  ALL OBJECTS IN CLASS: SURFACECONVECTIONALGORITHM:OUTSIDE ===========

SurfaceConvectionAlgorithm:Outside,
    SimpleCombined;          !- Algorithm


!-   ===========  ALL OBJECTS IN CLASS: HEATBALANCEALGORITHM ===========

HeatBalanceAlgorithm,
    ConductionTransferFunction,  !- Algorithm
    200;                     !- Surface Temperature Upper Limit {C}


!-   ===========  ALL OBJECTS IN CLASS: ZONECAPACITANCEMULTIPLIER:RESEARCHSPECIAL ===========

ZoneCapacitanceMultiplier:ResearchSpecial,
    1,                       !- Temperature Capacity Multiplier
    1,                       !- Humidity Capacity Multiplier
    1;                       !- Carbon Dioxide Capacity Multiplier


!-   ===========  ALL OBJECTS IN CLASS: TIMESTEP ===========

Timestep,
    4;                       !- Number of Timesteps per Hour


!-   ===========  ALL OBJECTS IN CLASS: CONVERGENCELIMITS ===========

ConvergenceLimits,
    ,                        !- Minimum System Timestep {minutes}
    20;                      !- Maximum HVAC Iterations


!-   ===========  ALL OBJECTS IN CLASS: SITE:LOCATION ===========

Site:Location,
    Oak Ridge,               !- Name
    35.96,                   !- Latitude {deg}
    -84.29,                  !- Longitude {deg}
    -5,                      !- Time Zone {hr}
    334;                     !- Elevation {m}


!-   ===========  ALL OBJECTS IN CLASS: RUNPERIOD ===========

RunPeriod,
    January,                  !- Name
    1,                       !- Begin Month
    1,                       !- Begin Day of Month
    1,                      !- End Month
    14,                      !- End Day of Month
    UseWeatherFile,          !- Day of Week for Start Day
    No,                      !- Use Weather File Holidays and Special Days
    No,                      !- Use Weather File Daylight Saving Period
    No,                      !- Apply Weekend Holiday Rule
    Yes,                     !- Use Weather File Rain Indicators
    Yes,                     !- Use Weather File Snow Indicators
    1;                       !- Number of Times Runperiod to be Repeated

RunPeriod,
    August,                  !- Name
    8,                       !- Begin Month
    15,                       !- Begin Day of Month
    8,                      !- End Month
    28,                      !- End Day of Month
    UseWeatherFile,          !- Day of Week for Start Day
    No,                      !- Use Weather File Holidays and Special Days
    No,                      !- Use Weather File Daylight Saving Period
    No,                      !- Apply Weekend Holiday Rule
    Yes,                     !- Use Weather File Rain Indicators
    Yes,                     !- Use Weather File Snow Indicators
    1;                       !- Number of Times Runperiod to be Repeated


!-   ===========  ALL OBJECTS IN CLASS: SITE:GROUNDTEMPERATURE:BUILDINGSURFACE ===========

Site:GroundTemperature:BuildingSurface,
    18,                      !- January Ground Temperature {C}
    18,                      !- February Ground Temperature {C}
    18,                      !- March Ground Temperature {C}
    18,                      !- April Ground Temperature {C}
    18,                      !- May Ground Temperature {C}
    18,                      !- June Ground Temperature {C}
    18,                      !- July Ground Temperature {C}
    18,                      !- August Ground Temperature {C}
    18,                      !- September Ground Temperature {C}
    18,                      !- October Ground Temperature {C}
    18,                      !- November Ground Temperature {C}
    18;                      !- December Ground Temperature {C}


!-   ===========  ALL OBJECTS IN CLASS: SCHEDULETYPELIMITS ===========

ScheduleTypeLimits,
    Any Number;              !- Name

ScheduleTypeLimits,
    Fraction,                !- Name
    0,                       !- Lower Limit Value
    1,                       !- Upper Limit Value
    Continuous;              !- Numeric Type

ScheduleTypeLimits,
    Temperature,             !- Name
    -40,                     !- Lower Limit Value
    100,                     !- Upper Limit Value
    Continuous;              !- Numeric Type

ScheduleTypeLimits,
    Control Type,            !- Name
    0,                       !- Lower Limit Value
    4,                       !- Upper Limit Value
    Discrete;                !- Numeric Type

ScheduleTypeLimits,
    On / Off,                !- Name
    0,                       !- Lower Limit Value
    1,                       !- Upper Limit Value
    Discrete;                !- Numeric Type

ScheduleTypeLimits,
    Relative Humidity,       !- Name
    0,                       !- Lower Limit Value
    100,                     !- Upper Limit Value
    Continuous;              !- Numeric Type


!-   ===========  ALL OBJECTS IN CLASS: SCHEDULE:COMPACT ===========

Schedule:Compact,
    Overhang,                !- Name
    Fraction,                !- Schedule Type Limits Name
    Through: 12/31,          !- Field 1
    For: AllDays,            !- Field 2
    Until: 24:00,            !- Field 3
    0.5;                     !- Field 4

Schedule:Compact,
    HVACAvailSched,          !- Name
    Fraction,                !- Schedule Type Limits Name
    Through: 12/31,          !- Field 1
    For: AllDays,            !- Field 2
    Until: 24:00,            !- Field 3
    1;                       !- Field 4

Schedule:Compact,
    Always 4,                !- Name
    Any Number,              !- Schedule Type Limits Name
    Through: 12/31,          !- Field 1
    For: AllDays,            !- Field 2
    Until: 24:00,            !- Field 3
    4;                       !- Field 4

Schedule:Compact,
    Heating Availability Sch,!- Name
    Fraction,                !- Schedule Type Limits Name
    Through: 5/10,           !- Field 1
    For: AllDays,            !- Field 2
    Until: 24:00,            !- Field 3
    1,                       !- Field 4
    Through: 5/11,           !- Field 5
    For: AllDays,            !- Field 6
    Until: 4:15,             !- Field 7
    1,                       !- Field 8
    Until: 24:00,            !- Field 9
    0,                       !- Field 10
    Through: 10/5,           !- Field 11
    For: AllDays,            !- Field 12
    Until: 24:00,            !- Field 13
    0,                       !- Field 14
    Through: 10/6,           !- Field 15
    For: AllDays,            !- Field 16
    Until: 19:00,            !- Field 17
    0,                       !- Field 18
    Until: 24:00,            !- Field 19
    1,                       !- Field 20
    Through: 12/31,          !- Field 21
    For: AllDays,            !- Field 22
    Until: 24:00,            !- Field 23
    1;                       !- Field 24

Schedule:Compact,
    Cooling Availability Sch,!- Name
    Fraction,                !- Schedule Type Limits Name
    Through: 4/5,            !- Field 1
    For: AllDays,            !- Field 2
    Until: 24:00,            !- Field 3
    0,                       !- Field 4
    Through: 4/6,            !- Field 5
    For: AllDays,            !- Field 6
    Until: 9:30,             !- Field 7
    0,                       !- Field 8
    Until: 24:00,            !- Field 9
    1,                       !- Field 10
    Through: 10/27,          !- Field 11
    For: AllDays,            !- Field 12
    Until: 24:00,            !- Field 13
    1,                       !- Field 14
    Through: 10/28,          !- Field 15
    For: AllDays,            !- Field 16
    Until: 17:30,            !- Field 17
    1,                       !- Field 18
    Until: 24:00,            !- Field 19
    0,                       !- Field 20
    Through: 12/31,          !- Field 21
    For: AllDays,            !- Field 22
    Until: 24:00,            !- Field 23
    0;                       !- Field 24


!-   ===========  ALL OBJECTS IN CLASS: SCHEDULE:FILE ===========

Schedule:File,
    Basement Zone Temperature,  !- Name
    Temperature,             !- Schedule Type Limits Name
    myschedule.csv,  !- File Name
    3,                       !- Column Number
    3,                       !- Rows to Skip at Top
    8760,                    !- Number of Hours of Data
    Comma;                   !- Column Separator

Schedule:File,
    Living Room Zone Temperature,  !- Name
    Temperature,             !- Schedule Type Limits Name
    myschedule.csv,  !- File Name
    4,                       !- Column Number
    3,                       !- Rows to Skip at Top
    8760,                    !- Number of Hours of Data
    Comma;                   !- Column Separator

Schedule:File,
    Master Bedroom Zone Temperature,  !- Name
    Temperature,             !- Schedule Type Limits Name
    myschedule.csv,  !- File Name
    5,                       !- Column Number
    3,                       !- Rows to Skip at Top
    8760,                    !- Number of Hours of Data
    Comma;                   !- Column Separator

Schedule:File,
    2nd Floor Bedroom Zone Temperature,  !- Name
    Temperature,             !- Schedule Type Limits Name
    myschedule.csv,  !- File Name
    6,                       !- Column Number
    3,                       !- Rows to Skip at Top
    8760,                    !- Number of Hours of Data
    Comma;                   !- Column Separator

Schedule:File,
    WWHP Total Energy,       !- Name
    Any Number,              !- Schedule Type Limits Name
    myschedule.csv,  !- File Name
    7,                       !- Column Number
    3,                       !- Rows to Skip at Top
    8760,                    !- Number of Hours of Data
    Comma;                   !- Column Separator

Schedule:File,
    WAHP Total Energy,       !- Name
    Any Number,              !- Schedule Type Limits Name
    myschedule.csv,  !- File Name
    8,                       !- Column Number
    3,                       !- Rows to Skip at Top
    8760,                    !- Number of Hours of Data
    Comma;                   !- Column Separator

Schedule:File,
    WAHP Auxilliary Heat Energy,  !- Name
    Any Number,              !- Schedule Type Limits Name
    myschedule.csv,  !- File Name
    9,                       !- Column Number
    3,                       !- Rows to Skip at Top
    8760,                    !- Number of Hours of Data
    Comma;                   !- Column Separator

Schedule:File,
    IHP Indoor Fan Energy,   !- Name
    Any Number,              !- Schedule Type Limits Name
    myschedule.csv,  !- File Name
    10,                      !- Column Number
    3,                       !- Rows to Skip at Top
    8760,                    !- Number of Hours of Data
    Comma;                   !- Column Separator

Schedule:File,
    Dryer Energy,            !- Name
    Any Number,              !- Schedule Type Limits Name
    myschedule.csv,  !- File Name
    11,                      !- Column Number
    3,                       !- Rows to Skip at Top
    8760,                    !- Number of Hours of Data
    Comma;                   !- Column Separator

Schedule:File,
    Oven/Microwave Energy,   !- Name
    Any Number,              !- Schedule Type Limits Name
    myschedule.csv,  !- File Name
    12,                      !- Column Number
    3,                       !- Rows to Skip at Top
    8760,                    !- Number of Hours of Data
    Comma;                   !- Column Separator

Schedule:File,
    Dishwasher Energy,       !- Name
    Any Number,              !- Schedule Type Limits Name
    myschedule.csv,  !- File Name
    13,                      !- Column Number
    3,                       !- Rows to Skip at Top
    8760,                    !- Number of Hours of Data
    Comma;                   !- Column Separator

Schedule:File,
    Refrigerator Energy,     !- Name
    Any Number,              !- Schedule Type Limits Name
    myschedule.csv,  !- File Name
    14,                      !- Column Number
    3,                       !- Rows to Skip at Top
    8760,                    !- Number of Hours of Data
    Comma;                   !- Column Separator

Schedule:File,
    Kitchen Plugs Energy,    !- Name
    Any Number,              !- Schedule Type Limits Name
    myschedule.csv,  !- File Name
    15,                      !- Column Number
    3,                       !- Rows to Skip at Top
    8760,                    !- Number of Hours of Data
    Comma;                   !- Column Separator

Schedule:File,
    Clother Washer Energy,   !- Name
    Any Number,              !- Schedule Type Limits Name
    myschedule.csv,  !- File Name
    16,                      !- Column Number
    3,                       !- Rows to Skip at Top
    8760,                    !- Number of Hours of Data
    Comma;                   !- Column Separator

Schedule:File,
    Bathroom Lights (1st and 2nd floor)Energy,  !- Name
    Any Number,              !- Schedule Type Limits Name
    myschedule.csv,  !- File Name
    17,                      !- Column Number
    3,                       !- Rows to Skip at Top
    8760,                    !- Number of Hours of Data
    Comma;                   !- Column Separator

Schedule:File,
    Bathroom Plugs (Heater on 2nd floor) Energy,  !- Name
    Any Number,              !- Schedule Type Limits Name
    myschedule.csv,  !- File Name
    18,                      !- Column Number
    3,                       !- Rows to Skip at Top
    8760,                    !- Number of Hours of Data
    Comma;                   !- Column Separator

Schedule:File,
    Bedroom Lights and Plugs (master and 2nd floor bed rooms) Energy,  !- Name
    Any Number,              !- Schedule Type Limits Name
    myschedule.csv,  !- File Name
    19,                      !- Column Number
    3,                       !- Rows to Skip at Top
    8760,                    !- Number of Hours of Data
    Comma;                   !- Column Separator

Schedule:File,
    Outside Lights Energy,   !- Name
    Any Number,              !- Schedule Type Limits Name
    myschedule.csv,  !- File Name
    20,                      !- Column Number
    3,                       !- Rows to Skip at Top
    8760,                    !- Number of Hours of Data
    Comma;                   !- Column Separator

Schedule:File,
    Level 1 Lights (kitchen and dining) Energy,  !- Name
    Any Number,              !- Schedule Type Limits Name
    myschedule.csv,  !- File Name
    21,                      !- Column Number
    3,                       !- Rows to Skip at Top
    8760,                    !- Number of Hours of Data
    Comma;                   !- Column Separator

Schedule:File,
    Diding Room Plugs (1st floor heater) Energy,  !- Name
    Any Number,              !- Schedule Type Limits Name
    myschedule.csv,  !- File Name
    22,                      !- Column Number
    3,                       !- Rows to Skip at Top
    8760,                    !- Number of Hours of Data
    Comma;                   !- Column Separator

Schedule:File,
    Basement Plugs Energy,   !- Name
    Any Number,              !- Schedule Type Limits Name
    myschedule.csv,  !- File Name
    23,                      !- Column Number
    3,                       !- Rows to Skip at Top
    8760,                    !- Number of Hours of Data
    Comma;                   !- Column Separator

Schedule:File,
    ERV Energy,              !- Name
    Any Number,              !- Schedule Type Limits Name
    myschedule.csv,  !- File Name
    24,                      !- Column Number
    3,                       !- Rows to Skip at Top
    8760,                    !- Number of Hours of Data
    Comma;                   !- Column Separator

Schedule:File,
    Basement Zone RH,        !- Name
    Relative Humidity,       !- Schedule Type Limits Name
    myschedule.csv,  !- File Name
    25,                      !- Column Number
    3,                       !- Rows to Skip at Top
    8760,                    !- Number of Hours of Data
    Comma;                   !- Column Separator

Schedule:File,
    Living Room Zone RH,     !- Name
    Relative Humidity,       !- Schedule Type Limits Name
    myschedule.csv,  !- File Name
    26,                      !- Column Number
    3,                       !- Rows to Skip at Top
    8760,                    !- Number of Hours of Data
    Comma;                   !- Column Separator

Schedule:File,
    Master Bedroom Zone RH,  !- Name
    Relative Humidity,       !- Schedule Type Limits Name
    myschedule.csv,  !- File Name
    27,                      !- Column Number
    3,                       !- Rows to Skip at Top
    8760,                    !- Number of Hours of Data
    Comma;                   !- Column Separator

Schedule:File,
    2nd Floor Bedroom Zone RH,  !- Name
    Relative Humidity,       !- Schedule Type Limits Name
    myschedule.csv,  !- File Name
    28,                      !- Column Number
    3,                       !- Rows to Skip at Top
    8760,                    !- Number of Hours of Data
    Comma;                   !- Column Separator


!-   ===========  ALL OBJECTS IN CLASS: MATERIAL ===========

Material,
    Gypsum Board 5/8",       !- Name
    Smooth,                  !- Roughness
    0.015875032180756,       !- Thickness {m}
    0.158620004901207,       !- Conductivity {W/m-K}
    640.738116835599,        !- Density {kg/m3}
    1129.68000854828,        !- Specific Heat {J/kg-K}
    0.9,                     !- Thermal Absorptance
    0.7,                     !- Solar Absorptance
    0.7;                     !- Visible Absorptance

Material,
    Cultured Stone,          !- Name
    VeryRough,               !- Roughness
    4.44500901061168E-02,    !- Thickness {m}
    0.4037600124758,         !- Conductivity {W/m-K}
    1649.90065085167,        !- Density {kg/m3}
    836.800006332062,        !- Specific Heat {J/kg-K}
    0.9,                     !- Thermal Absorptance
    0.7,                     !- Solar Absorptance
    0.7;                     !- Visible Absorptance

Material,
    Glass Fiber Insulation 2 3/8",  !- Name
    Smooth,                  !- Roughness
    6.03251222868728E-02,    !- Thickness {m}
    4.32600013366928E-02,    !- Conductivity {W/m-K}
    11.212917044623,         !- Density {kg/m3}
    836.800006332062,        !- Specific Heat {J/kg-K}
    0.9,                     !- Thermal Absorptance
    0.7,                     !- Solar Absorptance
    0.7;                     !- Visible Absorptance

Material,
    Concrete Foundation Wall,!- Name
    MediumSmooth,            !- Roughness
    0.254000514892096,       !- Thickness {m}
    1.44200004455643,        !- Conductivity {W/m-K}
    2242.5834089246,         !- Density {kg/m3}
    836.800006332062,        !- Specific Heat {J/kg-K}
    0.9,                     !- Thermal Absorptance
    0.7,                     !- Solar Absorptance
    0.7;                     !- Visible Absorptance

Material,
    Standing Seam Metal Roofing,  !- Name
    Smooth,                  !- Roughness
    0.0008,                  !- Thickness {m}
    45.28,                   !- Conductivity {W/m-K}
    7824,                    !- Density {kg/m3}
    500,                     !- Specific Heat {J/kg-K}
    0.9,                     !- Thermal Absorptance
    0.7,                     !- Solar Absorptance
    0.7;                     !- Visible Absorptance

Material,
    Plywood 1/2",            !- Name
    MediumSmooth,            !- Roughness
    0.0127,                  !- Thickness {m}
    0.15,                    !- Conductivity {W/m-K}
    608,                     !- Density {kg/m3}
    1630,                    !- Specific Heat {J/kg-K}
    0.9,                     !- Thermal Absorptance
    0.7,                     !- Solar Absorptance
    0.7;                     !- Visible Absorptance

Material,
    2x6 Wood Studs,          !- Name
    MediumSmooth,            !- Roughness
    0.139700283190653,       !- Thickness {m}
    0.15,                    !- Conductivity {W/m-K}
    608,                     !- Density {kg/m3}
    1630,                    !- Specific Heat {J/kg-K}
    0.9,                     !- Thermal Absorptance
    0.7,                     !- Solar Absorptance
    0.7;                     !- Visible Absorptance

Material,
    3/4" T&G Plywood Decking,!- Name
    MediumSmooth,            !- Roughness
    1.27000257446048E-02,    !- Thickness {m}
    0.15,                    !- Conductivity {W/m-K}
    608,                     !- Density {kg/m3}
    1630,                    !- Specific Heat {J/kg-K}
    0.9,                     !- Thermal Absorptance
    0.7,                     !- Solar Absorptance
    0.7;                     !- Visible Absorptance

Material,
    Concrete Slab 4",        !- Name
    MediumRough,             !- Roughness
    0.101600205956838,       !- Thickness {m}
    1.44200004455643,        !- Conductivity {W/m-K}
    2242.5834089246,         !- Density {kg/m3}
    836.800006332062,        !- Specific Heat {J/kg-K}
    0.9,                     !- Thermal Absorptance
    0.7,                     !- Solar Absorptance
    0.7;                     !- Visible Absorptance

Material,
    XPS Rigid Insulation 1", !- Name
    Smooth,                  !- Roughness
    2.54000514892096E-02,    !- Thickness {m}
    2.88400008911286E-02,    !- Conductivity {W/m-K}
    32.03690584178,          !- Density {kg/m3}
    1464.40001108111,        !- Specific Heat {J/kg-K}
    0.9,                     !- Thermal Absorptance
    0.7,                     !- Solar Absorptance
    0.7;                     !- Visible Absorptance

Material,
    Gravel 4",               !- Name
    VeryRough,               !- Roughness
    0.101600205956838,       !- Thickness {m}
    1.44200004455643,        !- Conductivity {W/m-K}
    2242.5834089246,         !- Density {kg/m3}
    836.800006332062,        !- Specific Heat {J/kg-K}
    0.9,                     !- Thermal Absorptance
    0.7,                     !- Solar Absorptance
    0.7;                     !- Visible Absorptance

Material,
    OSB 7/16",               !- Name
    MediumSmooth,            !- Roughness
    1.11125225265292E-02,    !- Thickness {m}
    0.101747523143902,       !- Conductivity {W/m-K}
    656.756569756489,        !- Density {kg/m3}
    1882.80001424714,        !- Specific Heat {J/kg-K}
    0.9,                     !- Thermal Absorptance
    0.7,                     !- Solar Absorptance
    0.7;                     !- Visible Absorptance

Material,
    EPS 5 + 5/8",            !- Name
    MediumSmooth,            !- Roughness
    0.142875289626804,       !- Thickness {m}
    3.77804011673784E-02,    !- Conductivity {W/m-K}
    12.6545778075031,        !- Density {kg/m3}
    1464.40001108111,        !- Specific Heat {J/kg-K}
    0.9,                     !- Thermal Absorptance
    0.7,                     !- Solar Absorptance
    0.7;                     !- Visible Absorptance

Material,
    EPS 9 + 3/8",            !- Name
    MediumSmooth,            !- Roughness
    0.23812548271134,        !- Thickness {m}
    3.77804011673784E-02,    !- Conductivity {W/m-K}
    12.6545778075031,        !- Density {kg/m3}
    1464.40001108111,        !- Specific Heat {J/kg-K}
    0.9,                     !- Thermal Absorptance
    0.7,                     !- Solar Absorptance
    0.7;                     !- Visible Absorptance

Material,
    Hardie Cladding 1/4" Gray,  !- Name
    MediumRough,             !- Roughness
    6.3500128723024E-03,     !- Thickness {m}
    0.245140007574593,       !- Conductivity {W/m-K}
    1409.62385703832,        !- Density {kg/m3}
    836.800006332062,        !- Specific Heat {J/kg-K}
    0.9,                     !- Thermal Absorptance
    0.521,                   !- Solar Absorptance
    0.7;                     !- Visible Absorptance

Material,
    Hardie Cladding 1/4" Dark Green,  !- Name
    MediumRough,             !- Roughness
    6.3500128723024E-03,     !- Thickness {m}
    0.245140007574593,       !- Conductivity {W/m-K}
    1409.62385703832,        !- Density {kg/m3}
    836.800006332062,        !- Specific Heat {J/kg-K}
    0.9,                     !- Thermal Absorptance
    0.667,                   !- Solar Absorptance
    0.7;                     !- Visible Absorptance

Material,
    Hardie Cladding 1/4" Cream,  !- Name
    MediumRough,             !- Roughness
    6.3500128723024E-03,     !- Thickness {m}
    0.245140007574593,       !- Conductivity {W/m-K}
    1409.62385703832,        !- Density {kg/m3}
    836.800006332062,        !- Specific Heat {J/kg-K}
    0.9,                     !- Thermal Absorptance
    0.255,                   !- Solar Absorptance
    0.7;                     !- Visible Absorptance


!-   ===========  ALL OBJECTS IN CLASS: MATERIAL:NOMASS ===========

Material:NoMass,
    Building Wrap,           !- Name
    Smooth,                  !- Roughness
    1.05666113069662E-02,    !- Thermal Resistance {m2-K/W}
    0.9,                     !- Thermal Absorptance
    0.7,                     !- Solar Absorptance
    0.7;                     !- Visible Absorptance


!-   ===========  ALL OBJECTS IN CLASS: MATERIAL:AIRGAP ===========

Material:AirGap,
    7/8" Air Gap at Furring, !- Name
    ;                        !- Thermal Resistance {m2-K/W}

Material:AirGap,
    Dimpled Spacer Mat,      !- Name
    8.80550942247183E-02;    !- Thermal Resistance {m2-K/W}


!-   ===========  ALL OBJECTS IN CLASS: WINDOWMATERIAL:SIMPLEGLAZINGSYSTEM ===========

WindowMaterial:SimpleGlazingSystem,
    Window A,                !- Name
    1.70347891091593,        !- U-Factor {W/m2-K}
    0.25,                    !- Solar Heat Gain Coefficient
    0.41;                    !- Visible Transmittance

WindowMaterial:SimpleGlazingSystem,
    Window B,                !- Name
    1.47634838946047,        !- U-Factor {W/m2-K}
    0.3,                     !- Solar Heat Gain Coefficient
    0.5;                     !- Visible Transmittance

WindowMaterial:SimpleGlazingSystem,
    Window C,                !- Name
    1.70347891091593,        !- U-Factor {W/m2-K}
    0.25,                    !- Solar Heat Gain Coefficient
    0.41;                    !- Visible Transmittance

WindowMaterial:SimpleGlazingSystem,
    Window D,                !- Name
    1.47634838946047,        !- U-Factor {W/m2-K}
    0.29,                    !- Solar Heat Gain Coefficient
    0.5;                     !- Visible Transmittance

WindowMaterial:SimpleGlazingSystem,
    Window E,                !- Name
    1.81704417164366,        !- U-Factor {W/m2-K}
    0.36,                    !- Solar Heat Gain Coefficient
    0.62;                    !- Visible Transmittance

WindowMaterial:SimpleGlazingSystem,
    Window F,                !- Name
    1.81704417164366,        !- U-Factor {W/m2-K}
    0.36,                    !- Solar Heat Gain Coefficient
    0.62;                    !- Visible Transmittance

WindowMaterial:SimpleGlazingSystem,
    Window G,                !- Name
    1.53313101982434,        !- U-Factor {W/m2-K}
    0.16,                    !- Solar Heat Gain Coefficient
    0.23;                    !- Visible Transmittance

WindowMaterial:SimpleGlazingSystem,
    Window H,                !- Name
    1.47634838946047,        !- U-Factor {W/m2-K}
    0.3,                     !- Solar Heat Gain Coefficient
    0.5;                     !- Visible Transmittance

WindowMaterial:SimpleGlazingSystem,
    Window I,                !- Name
    1.70347891091593,        !- U-Factor {W/m2-K}
    0.25,                    !- Solar Heat Gain Coefficient
    0.41;                    !- Visible Transmittance


!-   ===========  ALL OBJECTS IN CLASS: WINDOWMATERIAL:GLAZING ===========

WindowMaterial:Glazing,
    Window Not Used,         !- Name
    SpectralAverage,         !- Optical Data Type
    ,                        !- Window Glass Spectral Data Set Name
    1.27000257446048E-02,    !- Thickness {m}
    0.4,                     !- Solar Transmittance at Normal Incidence
    0.5,                     !- Front Side Solar Reflectance at Normal Incidence
    0.5,                     !- Back Side Solar Reflectance at Normal Incidence
    0.4,                     !- Visible Transmittance at Normal Incidence
    0.5,                     !- Front Side Visible Reflectance at Normal Incidence